    9
 REF: C. Liu, etc., JCTC, 2017
  O    0.027593   -0.157867   -0.075424
  H   -0.335530   -0.072588    0.809920
  H    0.993727   -0.196038    0.041196
  O    0.543588   -2.229792   -1.492129
  H    0.045126   -1.530445   -1.031358
  H    0.237483   -2.201037   -2.402542
  O    2.296536   -0.892950   -0.496140
  H    2.971376   -1.362688    0.000586
  H    1.819570   -1.578157   -0.999196
